Version 4
SHEET 1 1824 680
WIRE -288 -1232 -352 -1232
WIRE -544 -1200 -624 -1200
WIRE -432 -1200 -544 -1200
WIRE -544 -1168 -544 -1200
WIRE -240 -1168 -352 -1168
WIRE -128 -1168 -240 -1168
WIRE -240 -1152 -240 -1168
WIRE -1840 -1072 -1888 -1072
WIRE -2032 -1056 -2080 -1056
WIRE -1936 -1056 -1984 -1056
WIRE -1888 -1056 -1888 -1072
WIRE -544 -1056 -544 -1104
WIRE -240 -1056 -240 -1088
WIRE -240 -1056 -544 -1056
WIRE -240 -1008 -240 -1056
WIRE -464 -992 -512 -992
WIRE -320 -992 -384 -992
WIRE -2032 -976 -2032 -1056
WIRE -1984 -976 -2032 -976
WIRE -1936 -976 -1936 -1056
WIRE -1888 -976 -1936 -976
WIRE -992 -976 -1200 -976
WIRE -2080 -960 -2080 -976
WIRE -1344 -960 -1344 -992
WIRE -1200 -880 -1200 -976
WIRE -1152 -880 -1200 -880
WIRE -992 -864 -992 -976
WIRE -992 -864 -1088 -864
WIRE -896 -864 -992 -864
WIRE -512 -864 -512 -992
WIRE -512 -864 -816 -864
WIRE -464 -864 -512 -864
WIRE -1344 -848 -1344 -880
WIRE -1152 -848 -1344 -848
WIRE -320 -848 -320 -992
WIRE -320 -848 -400 -848
WIRE -272 -848 -320 -848
WIRE -464 -832 -576 -832
WIRE -1344 -816 -1344 -848
WIRE -704 -800 -720 -800
WIRE -576 -800 -576 -832
WIRE -576 -800 -624 -800
WIRE -2032 -768 -2096 -768
WIRE -576 -752 -576 -800
WIRE -2032 -720 -2032 -768
WIRE -1920 -720 -1952 -720
WIRE -1344 -704 -1344 -736
WIRE -1888 -608 -1936 -608
WIRE -576 -608 -576 -672
WIRE -1152 -544 -1264 -544
WIRE -1024 -544 -1072 -544
WIRE -960 -544 -1024 -544
WIRE -720 -544 -720 -800
WIRE -720 -544 -880 -544
WIRE -1264 -512 -1264 -544
WIRE -1024 -416 -1024 -544
WIRE -960 -416 -1024 -416
WIRE -848 -400 -896 -400
WIRE -720 -400 -720 -544
WIRE -720 -400 -848 -400
WIRE -1360 -384 -1440 -384
WIRE -1200 -384 -1280 -384
WIRE -1152 -384 -1200 -384
WIRE -1040 -384 -1072 -384
WIRE -960 -384 -1040 -384
WIRE -1040 -368 -1040 -384
WIRE -1040 -288 -1040 -304
WIRE -1200 -224 -1200 -384
WIRE -1136 -224 -1200 -224
WIRE -848 -224 -848 -400
WIRE -848 -224 -1072 -224
FLAG -2080 -960 0
FLAG -1840 -1072 Stimulus
FLAG -1920 -720 9V
IOPIN -1920 -720 Out
FLAG -2096 -688 0
FLAG -1888 -608 Vout
IOPIN -1888 -608 Out
FLAG -288 -1232 0
FLAG -240 -1008 0
FLAG -624 -1200 9V
IOPIN -624 -1200 In
FLAG -432 -816 0
FLAG -128 -1168 5V
IOPIN -128 -1168 In
FLAG -432 -880 5V
IOPIN -432 -880 Out
FLAG -1344 -704 0
FLAG -1344 -992 5V
IOPIN -1344 -992 Out
FLAG -576 -608 0
FLAG -1120 -896 5V
IOPIN -1120 -896 Out
FLAG -1120 -832 0
FLAG -272 -848 Vout
IOPIN -272 -848 Out
FLAG -928 -368 0
FLAG -928 -432 5V
IOPIN -928 -432 Out
FLAG -1040 -288 0
FLAG -1440 -384 Stimulus
FLAG -1264 -512 0
FLAG -720 -544 Filter
SYMBOL voltage -1984 -1072 R0
WINDOW 123 0 0 Left 0
WINDOW 39 0 0 Left 0
WINDOW 3 -89 197 Left 2
WINDOW 0 -13 54 Left 2
SYMATTR Value PWL file=PWLinput.csv
SYMATTR InstName V2
SYMBOL voltage -1888 -1072 R0
WINDOW 123 24 44 Left 2
WINDOW 39 0 0 Left 0
WINDOW 3 -386 233 Left 2
WINDOW 0 -11 56 Left 2
SYMATTR Value SINE({sineOffset} {sineAmplitude} {sineFreq})
SYMATTR InstName V3
SYMBOL voltage -2080 -1072 R0
WINDOW 123 0 0 Left 0
WINDOW 39 0 0 Left 0
WINDOW 3 3 160 Left 2
WINDOW 0 -13 55 Left 2
SYMATTR Value {dcAmplitude}
SYMATTR InstName V1
SYMBOL voltage -2096 -784 R0
WINDOW 123 24 44 Left 2
WINDOW 39 0 0 Left 0
WINDOW 3 -46 76 Left 2
WINDOW 0 -13 57 Left 2
SYMATTR Value 9
SYMATTR InstName V4
SYMBOL res -1936 -736 R90
WINDOW 0 -9 30 VBottom 2
WINDOW 3 34 56 VTop 2
SYMATTR InstName R_Sense
SYMATTR Value 0.010
SYMBOL AutoGenerated\\LM7805 -400 -1200 R0
WINDOW 0 0 -40 Bottom 2
WINDOW 3 8 51 Top 2
SYMATTR InstName U1
SYMBOL cap -256 -1152 R0
SYMATTR InstName C1
SYMATTR Value 0.1µ
SYMBOL cap -560 -1168 R0
SYMATTR InstName C2
SYMATTR Value 0.33µ
SYMBOL Opamps\\opamp2 -432 -912 R0
SYMATTR InstName U2
SYMATTR Value TLC2272
SYMBOL res -800 -880 R90
WINDOW 0 0 56 VBottom 2
WINDOW 3 32 56 VTop 2
SYMATTR InstName R2
SYMATTR Value 10k
SYMBOL res -608 -816 R90
WINDOW 0 0 56 VBottom 2
WINDOW 3 32 56 VTop 2
SYMATTR InstName R3
SYMATTR Value 10k
SYMBOL res -560 -656 R180
WINDOW 0 36 76 Left 2
WINDOW 3 36 40 Left 2
SYMATTR InstName R5
SYMATTR Value 150k
SYMBOL res -480 -976 R270
WINDOW 0 32 56 VTop 2
WINDOW 3 0 56 VBottom 2
SYMATTR InstName R6
SYMATTR Value 150k
SYMBOL res -1360 -976 R0
SYMATTR InstName R1
SYMATTR Value 16k
SYMBOL res -1360 -832 R0
SYMATTR InstName R7
SYMATTR Value 10k
SYMBOL Opamps\\opamp2 -1120 -928 R0
SYMATTR InstName U4
SYMATTR Value TL081
SYMBOL cap -1072 -240 R90
WINDOW 0 0 32 VBottom 2
WINDOW 3 32 32 VTop 2
SYMATTR InstName C5
SYMATTR Value 1µ
SYMBOL Opamps\\opamp2 -928 -464 R0
SYMATTR InstName U5
SYMATTR Value TL081
SYMBOL res -1264 -400 R90
WINDOW 0 0 56 VBottom 2
WINDOW 3 32 56 VTop 2
SYMATTR InstName R12
SYMATTR Value 10k
SYMBOL res -1056 -400 R90
WINDOW 0 0 56 VBottom 2
WINDOW 3 32 56 VTop 2
SYMATTR InstName R13
SYMATTR Value 10k
SYMBOL cap -1056 -368 R0
SYMATTR InstName C6
SYMATTR Value 1µ
SYMBOL res -1056 -560 R90
WINDOW 0 0 56 VBottom 2
WINDOW 3 32 56 VTop 2
SYMATTR InstName R14
SYMATTR Value 10k
SYMBOL res -864 -560 R90
WINDOW 0 0 56 VBottom 2
WINDOW 3 32 56 VTop 2
SYMATTR InstName R15
SYMATTR Value 5.8k
TEXT -2080 -1120 Left 2 !.tran 0 {transtop} 0 {timestep}
TEXT -1952 -1168 Left 2 !.include E344cfg.txt
TEXT -2288 -1384 Left 2 ;Don't change these -- used for auto-assessments.\nYou may modify input files while developing.\nFor submission: \n  * Use only 9V supply \n  * Connect "Stimulus" to your input\n  * Connect "Vout" to your output.\n  * Only one label name per net.
TEXT -2280 -1168 Left 2 ;Config file:
TEXT -2280 -1120 Left 2 ;Analysis setup:
TEXT -2272 -744 Left 2 ;Battery
TEXT -2280 -1032 Left 2 ;Sensor-\nemulating \nstimulus
TEXT -2272 -608 Left 2 ;Assessed nets:\nConnect to your outputs
TEXT -1552 -1400 Left 2 ;BK. Bannister,  20889356\nV(0degV) = 580 mV\ndeltaV/degV = 20 mV
TEXT -1224 -1400 Left 2 !.include LM78XX_RS.lib
TEXT -1224 -1368 Left 2 !.include TLC2272.LIB
TEXT -1224 -1336 Left 2 !.include TL081.lib
TEXT -944 -920 Left 2 ;Voltage offset
TEXT -1232 -640 Left 2 ;Second order low pass filter\nwith cutoff frequency of 15.92Hz
LINE Normal -1792 -1008 -1856 -1008 2
LINE Normal -1792 -864 -1792 -1008 2
LINE Normal -1808 -880 -1792 -864 2
LINE Normal -1792 -864 -1808 -880 2
LINE Normal -1776 -880 -1792 -864 2
LINE Normal -2128 -1008 -2112 -1008 2
LINE Normal -2128 -928 -2128 -1008 2
LINE Normal -2128 -912 -2128 -928 2
LINE Normal -2096 -912 -2128 -912 2
LINE Normal -2112 -928 -2096 -912 2
LINE Normal -2096 -912 -2112 -928 2
LINE Normal -2112 -896 -2096 -912 2
LINE Normal -1968 -944 -1968 -992 2
LINE Normal -1856 -944 -1968 -944 2
LINE Normal -1856 -896 -1856 -944 2
LINE Normal -1872 -912 -1856 -896 2
LINE Normal -1856 -896 -1872 -912 2
LINE Normal -1840 -912 -1856 -896 2
LINE Normal -2304 -544 -2304 -1408 1
LINE Normal -1680 -1408 -1680 -544 1
LINE Normal -1680 -544 -2304 -544 1
LINE Normal -1680 -1408 -2304 -1408 1
